#!/sbin/sh
#   _____ __________ _____ ____ _____ _________  
#  |     | _  |   __|   | |  __|_   _| _  | __ | 
#  | | | |    |  |  | | | |  __| | | |    |   -| 
#  |_|_|_|_|__|_____|_|___|____| |_| |_|__|_|__| 
#                           by Kyliekyler © 2019

#===========================================================================//
# GIVE PROPER CREDITS IF YOU USE THE PART OF IT IN YOUR WORK, THANKS!
#===========================================================================//

# INITIALIZATION
umask 022

# GLOBAL VARIABLES
TMPDIR=/dev/tmp
PERSISTDIR=/sbin/.magisk/mirror/persist

rm -rf $TMPDIR 2>/dev/null
mkdir -p $TMPDIR

# ECHO BEFORE LOADING UTIL_FUNCTIONS
require_new_magisk() {
  echo "- PLEASE INSTALL MAGISK V19.0+!"
  exit 1
}

PRINT_MODNAME() {
  echo " "
  echo "- SETTING UP ENVIRONMENT..."
}

# ENVIRONMENT

OUTFD=$2
ZIPFILE=$3

mount /data 2>/dev/null

# FUNCTIONS
[ -f /data/adb/magisk/util_functions.sh ] || require_new_magisk
. /data/adb/magisk/util_functions.sh
[ $MAGISK_VER_CODE -gt 18100 ] || require_new_magisk

# PREP FLASH
setup_flashable

# MOUNT PARTITIONS
mount_partitions

# SETUP BUSYBOX AND BINARIES
$BOOTMODE && boot_actions || recovery_actions

# PREPARATION

# EXTRACT MODULE PROP
unzip -o "$ZIPFILE" module.prop -d $TMPDIR >&2
[ ! -f $TMPDIR/module.prop ] && abort "- UNABLE TO EXTRACT ZIP FILE!"

$BOOTMODE && MODDIRNAME=modules_update || MODDIRNAME=modules
MODULEROOT=$NVBASE/$MODDIRNAME
MODID=M4GN3T4R
MODPATH=$MODULEROOT/$MODID
MODNAME=$(grep_prop name $TMPDIR/module.prop)

# CREATE MODPATH
rm -rf $MODPATH 2>/dev/null
mkdir -p $MODPATH

# INSTALL
PRINT_MODNAME
unzip -o "$ZIPFILE" install -d $MODPATH >&2

if ! grep -q '^SKIPUNZIP=1$' $MODPATH/install 2>/dev/null; then
  echo " "
  echo "- EXTRACTING MODULE FILES"
  unzip -o "$ZIPFILE" -x 'META-INF/*' -d $MODPATH >&2

  # DEFAULT PERMISSION
  set_perm_recursive $MODPATH 0 0 0755 0644
fi

# LOAD CUSTOM INSTALLER
SKIPUNZIP=1
[ -f "$MODPATH/binary.tar.xz" ] && tar -xf $MODPATH/binary.tar.xz -C $MODPATH 2>/dev/null
chmod 0755 $MODPATH/install
PID=""
( $MODPATH/install )&
PID="$!"
wait $PID 2>/dev/null

if $BOOTMODE; then
  # UPDATE MAGISK INFO
  mktouch $NVBASE/modules/$MODID/update
  cp -af $MODPATH/module.prop $NVBASE/modules/$MODID/module.prop
fi

# REMOVE STUFFS
rm -rf \
$MODPATH/LICENSE $MODPATH/install \
$MODPATH/README.md $MODPATH/.git* 2>/dev/null

# FINALIZING
cd /
$BOOTMODE || recovery_cleanup
rm -rf $TMPDIR

exit 0
